/*--------------------------------*- C++ -*----------------------------------*\
  =========                 |
  \\      /  F ield         | OpenFOAM: The Open Source CFD Toolbox
   \\    /   O peration     | Website:  https://openfoam.org
    \\  /    A nd           | Version:  7
     \\/     M anipulation  |
\*---------------------------------------------------------------------------*/
FoamFile
{
    version     2.0;
    format      ascii;
    class       dictionary;
    location    "system";
    object      fvSolution;
}
// * * * * * * * * * * * * * * * * * * * * * * * * * * * * * * * * * * * * * //

solvers
{
    "p.*"
    {
        solver          GAMG;
        smoother        symGaussSeidel;
        tolerance       1e-3;
        relTol          0;
    }

    "(U|e|h).*"
    {
        $p;
        tolerance       1e-05;
        relTol          0.1;
    }

    "rho.*"
    {
        solver          PCG;
        preconditioner  DIC;
        tolerance       1e-05;
        relTol          0.1;
    }
}

PIMPLE
{
    nOuterCorrectors 5;
    nCorrectors      2;
    nNonOrthogonalCorrectors 0;
    momentumPredictor yes;

    transonic            yes;
}


// ************************************************************************* //
