/*--------------------------------*- C++ -*----------------------------------*\
| =========                 |                                                |
| \\      /  F ield         | cfMesh: A library for mesh generation          |
|  \\    /   O peration     |                                                |
|   \\  /    A nd           | Author: Franjo Juretic                         |
|    \\/     M anipulation  | E-mail: franjo.juretic@c-fields.com            |
\*---------------------------------------------------------------------------*/

FoamFile
{
    version     2.0;
    format      ascii;
    class       dictionary;
    object      meshDict;
}

// * * * * * * * * * * * * * * * * * * * * * * * * * * * * * * * * * * * * * //

maxCellSize     0.005;

surfaceFile     "geom/feature.stl";

boundaryLayers
{
    patchBoundaryLayers
    {
        test_0
        {
            nLayers         10;
            thicknessRatio  1.2;
            optimiseLayer 1;
        }

        test_4
        {
            nLayers         10;
            thicknessRatio  1.2;
            optimiseLayer 1;
        }
    }

    optimisationParameters
    {
        nSmoothNormals 10;
        maxNumIterations 10;
        reCalculateNormals 1;
        
    }
}

// ************************************************************************* //
