/*--------------------------------*- C++ -*----------------------------------*\
| =========                 |                                                 |
| \\      /  F ield         | OpenFOAM: The Open Source CFD Toolbox           |
|  \\    /   O peration     | Version:  v2006                                 |
|   \\  /    A nd           | Website:  www.openfoam.com                      |
|    \\/     M anipulation  |                                                 |
\*---------------------------------------------------------------------------*/
FoamFile
{
    version     2.0;
    format      ascii;
    class       dictionary;
    location    "constant/polyMesh";
    object      meshMetaDict;
}
// * * * * * * * * * * * * * * * * * * * * * * * * * * * * * * * * * * * * * //

surfaceFile     "geom/threeDtest.stl";

surfaceMeta
{
    nPoints         215;
    nFacets         426;
    nPatches        1;
    nFeatureEdges   0;
    patches
    {
        patch0
        {
            type            empty;
            nFacets         426;
        }
    }
    pointSubsets
    {
    }
    facetSubsets
    {
    }
    featureEdgeSubsets
    {
    }
}

lastStep        meshOptimisation;

completedSteps  16 ( start start templateGeneration templateGeneration surfaceTopology surfaceTopology surfaceProjection surfaceProjection patchAssignment patchAssignment edgeExtraction edgeExtraction boundaryLayerGeneration boundaryLayerGeneration meshOptimisation meshOptimisation );
